1983
  ChemDraw04232314162D

  0  0  0     0  0              0 V3000
M  V30 BEGIN CTAB
M  V30 COUNTS 20 20 0 0 0
M  V30 BEGIN ATOM
M  V30 1 O -0.135798 -2.396678 0.000000 0
M  V30 2 O 1.293216 0.903396 0.000000 0
M  V30 3 N -0.135798 0.903396 0.000000 0
M  V30 4 C -0.135798 0.078377 0.000000 0
M  V30 5 C -0.850264 -0.334133 0.000000 0
M  V30 6 C 0.578668 -0.334133 0.000000 0
M  V30 7 C -0.850264 -1.159151 0.000000 0
M  V30 8 C 0.578668 -1.159151 0.000000 0
M  V30 9 C -0.135798 -1.571661 0.000000 0
M  V30 10 C 0.578668 1.315905 0.000000 0
M  V30 11 C 0.578668 2.140924 0.000000 0
M  V30 12 H -1.293216 -0.078377 0.000000 0
M  V30 13 H 1.021703 -0.078377 0.000000 0
M  V30 14 H -0.578751 1.159151 0.000000 0
M  V30 15 H -1.293216 -1.414907 0.000000 0
M  V30 16 H 1.021703 -1.414907 0.000000 0
M  V30 17 H 1.090179 2.140924 0.000000 0
M  V30 18 H 0.578668 2.652434 0.000000 0
M  V30 19 H 0.067156 2.140924 0.000000 0
M  V30 20 H -0.578751 -2.652434 0.000000 0
M  V30 END ATOM
M  V30 BEGIN BOND
M  V30 1 1 1 9
M  V30 2 1 1 20
M  V30 3 2 2 10
M  V30 4 1 3 4
M  V30 5 1 3 10
M  V30 6 1 3 14
M  V30 7 2 4 5
M  V30 8 1 4 6
M  V30 9 1 5 7
M  V30 10 1 5 12
M  V30 11 2 6 8
M  V30 12 1 6 13
M  V30 13 2 7 9
M  V30 14 1 7 15
M  V30 15 1 8 9
M  V30 16 1 8 16
M  V30 17 1 10 11
M  V30 18 1 11 17
M  V30 19 1 11 18
M  V30 20 1 11 19
M  V30 END BOND
M  V30 END CTAB
M  END
> <PUBCHEM_COMPOUND_CID>
1983

> <PUBCHEM_COMPOUND_CANONICALIZED>
1

> <PUBCHEM_CACTVS_COMPLEXITY>
139

> <PUBCHEM_CACTVS_HBOND_ACCEPTOR>
2

> <PUBCHEM_CACTVS_HBOND_DONOR>
2

> <PUBCHEM_CACTVS_ROTATABLE_BOND>
1

> <PUBCHEM_CACTVS_SUBSKEYS>
AAADccByMAAAAAAAAAAAAAAAAAAAAAAAAAAwAAAAAAAAAAABAAAAHgAQCAAACAyBkAAyxoLAAgCIACVSUACCAAAhIgAIiAAGbIgIJiLCkZOEcAhk1BHI2AewQAAAAEAAAAAAAAAAgAAAAAAAAAAAAAAAAA==

> <PUBCHEM_IUPAC_OPENEYE_NAME>
N-(4-hydroxyphenyl)acetamide

> <PUBCHEM_IUPAC_CAS_NAME>
N-(4-hydroxyphenyl)acetamide

> <PUBCHEM_IUPAC_NAME_MARKUP>
<I>N</I>-(4-hydroxyphenyl)acetamide

> <PUBCHEM_IUPAC_NAME>
N-(4-hydroxyphenyl)acetamide

> <PUBCHEM_IUPAC_SYSTEMATIC_NAME>
N-(4-hydroxyphenyl)ethanamide

> <PUBCHEM_IUPAC_TRADITIONAL_NAME>
N-(4-hydroxyphenyl)acetamide

> <PUBCHEM_IUPAC_INCHI>
InChI=1S/C8H9NO2/c1-6(10)9-7-2-4-8(11)5-3-7/h2-5,11H,1H3,(H,9,10)

> <PUBCHEM_IUPAC_INCHIKEY>
RZVAJINKPMORJF-UHFFFAOYSA-N

> <PUBCHEM_XLOGP3>
0.5

> <PUBCHEM_EXACT_MASS>
151.063328530

> <PUBCHEM_MOLECULAR_FORMULA>
C8H9NO2

> <PUBCHEM_MOLECULAR_WEIGHT>
151.16

> <PUBCHEM_OPENEYE_CAN_SMILES>
CC(=O)NC1=CC=C(C=C1)O

> <PUBCHEM_OPENEYE_ISO_SMILES>
CC(=O)NC1=CC=C(C=C1)O

> <PUBCHEM_CACTVS_TPSA>
49.3

> <PUBCHEM_MONOISOTOPIC_WEIGHT>
151.063328530

> <PUBCHEM_TOTAL_CHARGE>
0

> <PUBCHEM_HEAVY_ATOM_COUNT>
11

> <PUBCHEM_ATOM_DEF_STEREO_COUNT>
0

> <PUBCHEM_ATOM_UDEF_STEREO_COUNT>
0

> <PUBCHEM_BOND_DEF_STEREO_COUNT>
0

> <PUBCHEM_BOND_UDEF_STEREO_COUNT>
0

> <PUBCHEM_ISOTOPIC_ATOM_COUNT>
0

> <PUBCHEM_COMPONENT_COUNT>
1

> <PUBCHEM_CACTVS_TAUTO_COUNT>
6

> <PUBCHEM_COORDINATE_TYPE>
1
5
255

> <PUBCHEM_BONDANNOTATIONS>
4  5  8
4  6  8
5  7  8
6  8  8
7  9  8
8  9  8

$$$$